reduced_networks/ieee34/59pct/dss/Branches.dss
! Radial Kron-equivalent series elements
new Reactor.kr_2_3 phases=3 bus1=800.1.2.3 bus2=808.1.2.3 rmatrix=[9.250988328124491 | 1.453913733920065 9.161024487081136 | 1.473977240659088 1.429684427234786 9.199775424420903] xmatrix=[9.23396457888504 | 3.999250475060201 9.390357923385308 | 3.470546377308989 3.177128930832844 9.322537225228611]
new Reactor.kr_3_4 phases=3 bus1=808.1.2.3 bus2=812.1.2.3 rmatrix=[9.494318175000002 | 1.492187512499996 9.401988637500001 | 1.512784087499998 1.467329549999998 9.441761362500005] xmatrix=[9.476562487500001 | 4.104403424999998 9.637073850000004 | 3.5617897875 3.260653424999999 9.567471600000005]
new Reactor.kr_4_5 phases=3 bus1=812.1.2.3 bus2=814.1.2.3 rmatrix=[7.527095449139997 | 1.183006259910002 7.45389659181 | 1.19933522457 1.163298867239999 7.485428408189999] xmatrix=[7.513018740089999 | 3.253971035339999 7.640272148279998 | 2.823786943529999 2.58504603534 7.585091484479998]
new Reactor.kr_5_6 phases=2 bus1=814.1.2 bus2=814r.1.2 rmatrix=[-3.86575067808001 | 0 6.990591643199722] xmatrix=[-9.664376695200145 | -0 17.47647910799985]
new Reactor.kr_6_7 phases=3 bus1=814r.1.2.3 bus2=816.1.2.3 rmatrix=[0.1169696968821941 | 0.01410303037936355 0.1161030303227805 | 0.01429696957776774 0.01386666653737225 0.1164787877614782] xmatrix=[0.08554545442757769 | 0.03904242429717509 0.08655151522482916 | 0.03449090910348403 0.03174545438717288 0.08611515138414687]
new Reactor.kr_7_8 phases=3 bus1=816.1.2.3 bus2=824.1.2.3 rmatrix=[3.732064393629999 | 0.4499748137000019 3.7044123137 | 0.4561626863000005 0.4424333299300002 3.716401324519999] xmatrix=[2.72943465445 | 1.245697350960001 2.76153428185 | 1.10047556911 1.01287840445 2.74761154808]
new Reactor.kr_7_9 phases=1 bus1=816.1 bus2=820.1 rmatrix=[26.43568084929431] xmatrix=[14.02819343022286]
new Reactor.kr_8_10 phases=3 bus1=824.1.2.3 bus2=830.1.2.3 rmatrix=[7.778456190654069 | 0.9378439208625833 7.720823080447948 | 0.9507402898933325 0.9221249920552742 7.74581047054174] xmatrix=[5.68878287489481 | 2.596312810515668 5.755684905784896 | 2.293639373389933 2.111067993160267 5.726666459149534]
new Reactor.kr_10_14 phases=3 bus1=830.1.2.3 bus2=852.1.2.3 rmatrix=[13.65249686723886 | 1.646053109286088 13.55127472546903 | 1.668704935455929 1.618466611056615 13.59519882339589] xmatrix=[9.984773763880007 | 4.556960424553805 10.10222348307165 | 4.025720244949968 3.705276535068502 10.0512673875286]
new Reactor.kr_11_12 phases=3 bus1=832.1.2.3 bus2=852r.1.2.3 rmatrix=[0.003655303029999999 | 0.0004407197000000007 0.003628219700000001 | 0.0004467802999999999 0.000433333330000002 0.003639962120000001] xmatrix=[0.002673295449999999 | 0.001220075759999999 0.002704734849999999 | 0.00107784091 0.0009920454500000006 0.00269109848]
new Reactor.kr_12_14 phases=2 bus1=852r.2.3 bus2=852.2.3 rmatrix=[-3.821187593880203 | 0 -7.687067440320495] xmatrix=[-9.552968984700229 | -0 -19.21766860080011]
new Reactor.kr_13_15 phases=3 bus1=888.1.2.3 bus2=890.1.2.3 rmatrix=[2.673599998080005 | 0.4202000035199988 2.647600000320001 | 0.4259999990400017 0.4132000012799983 2.658799999679999] xmatrix=[2.668599996480001 | 1.155800004479999 2.71379999616 | 1.003000004160002 0.9182000044800036 2.694200002560005]
